702
Crystal created from CIF file. Box vectors: a=   15.15360    0.00000    0.00000 b=   21.03420   22.62990    0.00000 c=   -5.69857   -3.23516   21.66039
O            0.642424   4.315167   6.455084
O           -1.257100   3.236779  13.675213
O           -3.156623   2.158390  20.895342
O            2.260991  11.137188   6.455084
O            0.361468  10.058799  13.675213
O           -1.538056   8.980411  20.895342
O            3.879559  17.959209   6.455084
O            1.980035  16.880820  13.675213
O            0.080511  15.802432  20.895342
O            5.693624   4.315167   6.455084
O            3.794100   3.236779  13.675213
O            1.894577   2.158390  20.895342
O            7.312191  11.137188   6.455084
O            5.412668  10.058799  13.675213
O            3.513144   8.980411  20.895342
O            8.930759  17.959209   6.455084
O            7.031235  16.880820  13.675213
O            5.131711  15.802432  20.895342
O           10.744824   4.315167   6.455084
O            8.845300   3.236779  13.675213
O            6.945777   2.158390  20.895342
O           12.363391  11.137188   6.455084
O           10.463868  10.058799  13.675213
O            8.564344   8.980411  20.895342
O           13.981959  17.959209   6.455084
O           12.082435  16.880820  13.675213
O           10.182911  15.802432  20.895342
O            4.285018   2.844602   5.502821
O            2.385494   1.766213  12.722950
O            0.485971   0.687825  19.943079
O            5.903585   9.666622   5.502821
O            4.004062   8.588234  12.722950
O            2.104538   7.509846  19.943079
O            7.522153  16.488643   5.502821
O            5.622629  15.410255  12.722950
O            3.723105  14.331867  19.943079
O            9.336218   2.844602   5.502821
O            7.436694   1.766213  12.722950
O            5.537171   0.687825  19.943079
O           10.954785   9.666622   5.502821
O            9.055262   8.588234  12.722950
O            7.155738   7.509846  19.943079
O           12.573353  16.488643   5.502821
O           10.673829  15.410255  12.722950
O            8.774305  14.331867  19.943079
O           14.387418   2.844602   5.502821
O           12.487894   1.766213  12.722950
O           10.588371   0.687825  19.943079
O           16.005985   9.666622   5.502821
O           14.106462   8.588234  12.722950
O           12.206938   7.509846  19.943079
O           17.624553  16.488643   5.502821
O           15.725029  15.410255  12.722950
O           13.825505  14.331867  19.943079
O            4.127820   1.428466   0.765045
O            2.228296   0.350077   7.985174
O            0.328772  -0.728311  15.205303
O            5.746387   8.250487   0.765045
O            3.846864   7.172098   7.985174
O            1.947340   6.093710  15.205303
O            7.364955  15.072508   0.765045
O            5.465431  13.994119   7.985174
O            3.565907  12.915731  15.205303
O            9.179020   1.428466   0.765045
O            7.279496   0.350077   7.985174
O            5.379972  -0.728311  15.205303
O           10.797587   8.250487   0.765045
O            8.898064   7.172098   7.985174
O            6.998540   6.093710  15.205303
O           12.416155  15.072508   0.765045
O           10.516631  13.994119   7.985174
O            8.617107  12.915731  15.205303
O           14.230220   1.428466   0.765045
O           12.330696   0.350077   7.985174
O           10.431172  -0.728311  15.205303
O           15.848787   8.250487   0.765045
O           13.949264   7.172098   7.985174
O           12.049740   6.093710  15.205303
O           17.467355  15.072508   0.765045
O           15.567831  13.994119   7.985174
O           13.668307  12.915731  15.205303
O            0.485226   2.899031   1.717308
O           -1.414298   1.820643   8.937437
O           -3.313821   0.742255  16.157566
O            2.103793   9.721052   1.717308
O            0.204270   8.642664   8.937437
O           -1.695254   7.564275  16.157566
O            3.722361  16.543073   1.717308
O            1.822837  15.464685   8.937437
O           -0.076687  14.386296  16.157566
O            5.536426   2.899031   1.717308
O            3.636902   1.820643   8.937437
O            1.737379   0.742255  16.157566
O            7.154993   9.721052   1.717308
O            5.255470   8.642664   8.937437
O            3.355946   7.564275  16.157566
O            8.773561  16.543073   1.717308
O            6.874037  15.464685   8.937437
O            4.974513  14.386296  16.157566
O           10.587626   2.899031   1.717308
O            8.688102   1.820643   8.937437
O            6.788579   0.742255  16.157566
O           12.206193   9.721052   1.717308
O           10.306670   8.642664   8.937437
O            8.407146   7.564275  16.157566
O           13.824761  16.543073   1.717308
O           11.925237  15.464685   8.937437
O           10.025713  14.386296  16.157566
N            3.476443   4.747262   6.293931
N            1.576919   3.668873  13.514060
N           -0.322604   2.590485  20.734189
N            5.095010  11.569282   6.293931
N            3.195487  10.490894  13.514060
N            1.295963   9.412506  20.734189
N            6.713578  18.391303   6.293931
N            4.814054  17.312915  13.514060
N            2.914531  16.234527  20.734189
N            8.527643   4.747262   6.293931
N            6.628119   3.668873  13.514060
N            4.728596   2.590485  20.734189
N           10.146210  11.569282   6.293931
N            8.246687  10.490894  13.514060
N            6.347163   9.412506  20.734189
N           11.764778  18.391303   6.293931
N            9.865254  17.312915  13.514060
N            7.965731  16.234527  20.734189
N           13.578843   4.747262   6.293931
N           11.679319   3.668873  13.514060
N            9.779796   2.590485  20.734189
N           15.197410  11.569282   6.293931
N           13.297887  10.490894  13.514060
N           11.398363   9.412506  20.734189
N           16.815978  18.391303   6.293931
N           14.916454  17.312915  13.514060
N           13.016931  16.234527  20.734189
N            1.293801   0.996371   0.926198
N           -0.605723  -0.082017   8.146327
N           -2.505247  -1.160406  15.366456
N            2.912368   7.818392   0.926198
N            1.012844   6.740004   8.146327
N           -0.886679   5.661615  15.366456
N            4.530936  14.640413   0.926198
N            2.631412  13.562025   8.146327
N            0.731888  12.483636  15.366456
N            6.345001   0.996371   0.926198
N            4.445477  -0.082017   8.146327
N            2.545953  -1.160406  15.366456
N            7.963568   7.818392   0.926198
N            6.064044   6.740004   8.146327
N            4.164521   5.661615  15.366456
N            9.582136  14.640413   0.926198
N            7.682612  13.562025   8.146327
N            5.783088  12.483636  15.366456
N           11.396201   0.996371   0.926198
N            9.496677  -0.082017   8.146327
N            7.597153  -1.160406  15.366456
N           13.014768   7.818392   0.926198
N           11.115244   6.740004   8.146327
N            9.215721   5.661615  15.366456
N           14.633336  14.640413   0.926198
N           12.733812  13.562025   8.146327
N           10.834288  12.483636  15.366456
H            3.581299   5.590758   6.736380
H            1.681775   4.512370  13.956509
H           -0.217748   3.433981  21.176638
H            5.199867  12.412779   6.736380
H            3.300343  11.334391  13.956509
H            1.400819  10.256002  21.176638
H            6.818434  19.234800   6.736380
H            4.918910  18.156411  13.956509
H            3.019387  17.078023  21.176638
H            8.632499   5.590758   6.736380
H            6.732975   4.512370  13.956509
H            4.833452   3.433981  21.176638
H           10.251067  12.412779   6.736380
H            8.351543  11.334391  13.956509
H            6.452019  10.256002  21.176638
H           11.869634  19.234800   6.736380
H            9.970110  18.156411  13.956509
H            8.070587  17.078023  21.176638
H           13.683699   5.590758   6.736380
H           11.784175   4.512370  13.956509
H            9.884652   3.433981  21.176638
H           15.302267  12.412779   6.736380
H           13.402743  11.334391  13.956509
H           11.503219  10.256002  21.176638
H           16.920834  19.234800   6.736380
H           15.021310  18.156411  13.956509
H           13.121787  17.078023  21.176638
H            2.616991   4.559319   6.014367
H            0.717467   3.480931  13.234497
H           -1.182057   2.402543  20.454626
H            4.235558  11.381340   6.014367
H            2.336034  10.302952  13.234497
H            0.436511   9.224564  20.454626
H            5.854126  18.203361   6.014367
H            3.954602  17.124973  13.234497
H            2.055078  16.046585  20.454626
H            7.668191   4.559319   6.014367
H            5.768667   3.480931  13.234497
H            3.869143   2.402543  20.454626
H            9.286758  11.381340   6.014367
H            7.387234  10.302952  13.234497
H            5.487711   9.224564  20.454626
H           10.905326  18.203361   6.014367
H            9.005802  17.124973  13.234497
H            7.106278  16.046585  20.454626
H           12.719391   4.559319   6.014367
H           10.819867   3.480931  13.234497
H            8.920343   2.402543  20.454626
H           14.337958  11.381340   6.014367
H           12.438434  10.302952  13.234497
H           10.538911   9.224564  20.454626
H           15.956526  18.203361   6.014367
H           14.057002  17.124973  13.234497
H           12.157478  16.046585  20.454626
H            0.862551   1.851305   6.194871
H           -1.036972   0.772917  13.415000
H           -2.936496  -0.305471  20.635129
H            2.481119   8.673326   6.194871
H            0.581595   7.594938  13.415000
H           -1.317929   6.516550  20.635129
H            4.099686  15.495347   6.194871
H            2.200162  14.416959  13.415000
H            0.300639  13.338571  20.635129
H            5.913751   1.851305   6.194871
H            4.014228   0.772917  13.415000
H            2.114704  -0.305471  20.635129
H            7.532319   8.673326   6.194871
H            5.632795   7.594938  13.415000
H            3.733271   6.516550  20.635129
H            9.150886  15.495347   6.194871
H            7.251362  14.416959  13.415000
H            5.351839  13.338571  20.635129
H           10.964951   1.851305   6.194871
H            9.065428   0.772917  13.415000
H            7.165904  -0.305471  20.635129
H           12.583519   8.673326   6.194871
H           10.683995   7.594938  13.415000
H            8.784471   6.516550  20.635129
H           14.202086  15.495347   6.194871
H           12.302562  14.416959  13.415000
H           10.403039  13.338571  20.635129
H            1.015346   2.425338   4.635323
H           -0.884177   1.346950  11.855452
H           -2.783701   0.268562  19.075581
H            2.633914   9.247359   4.635323
H            0.734390   8.168971  11.855452
H           -1.165134   7.090583  19.075581
H            4.252481  16.069380   4.635323
H            2.352957  14.990992  11.855452
H            0.453434  13.912604  19.075581
H            6.066546   2.425338   4.635323
H            4.167023   1.346950  11.855452
H            2.267499   0.268562  19.075581
H            7.685114   9.247359   4.635323
H            5.785590   8.168971  11.855452
H            3.886066   7.090583  19.075581
H            9.303681  16.069380   4.635323
H            7.404157  14.990992  11.855452
H            5.504634  13.912604  19.075581
H           11.117746   2.425338   4.635323
H            9.218223   1.346950  11.855452
H            7.318699   0.268562  19.075581
H           12.736314   9.247359   4.635323
H           10.836790   8.168971  11.855452
H            8.937266   7.090583  19.075581
H           14.354881  16.069380   4.635323
H           12.455357  14.990992  11.855452
H           10.555834  13.912604  19.075581
H           -0.647261   0.024972   5.176833
H           -2.546785  -1.053416  12.396962
H           -4.446309  -2.131805  19.617091
H            0.971306   6.846993   5.176833
H           -0.928218   5.768605  12.396962
H           -2.827741   4.690216  19.617091
H            2.589874  13.669014   5.176833
H            0.690350  12.590626  12.396962
H           -1.209174  11.512237  19.617091
H            4.403939   0.024972   5.176833
H            2.504415  -1.053416  12.396962
H            0.604891  -2.131805  19.617091
H            6.022506   6.846993   5.176833
H            4.122982   5.768605  12.396962
H            2.223459   4.690216  19.617091
H            7.641074  13.669014   5.176833
H            5.741550  12.590626  12.396962
H            3.842026  11.512237  19.617091
H            9.455139   0.024972   5.176833
H            7.555615  -1.053416  12.396962
H            5.656091  -2.131805  19.617091
H           11.073706   6.846993   5.176833
H            9.174182   5.768605  12.396962
H            7.274659   4.690216  19.617091
H           12.692274  13.669014   5.176833
H           10.792750  12.590626  12.396962
H            8.893226  11.512237  19.617091
H            4.266414   1.050337   3.610065
H            2.366890  -0.028052  10.830194
H            0.467367  -1.106440  18.050323
H            5.884981   7.872358   3.610065
H            3.985458   6.793969  10.830194
H            2.085934   5.715581  18.050323
H            7.503549  14.694379   3.610065
H            5.604025  13.615990  10.830194
H            3.704501  12.537602  18.050323
H            9.317614   1.050337   3.610065
H            7.418090  -0.028052  10.830194
H            5.518567  -1.106440  18.050323
H           10.936181   7.872358   3.610065
H            9.036658   6.793969  10.830194
H            7.137134   5.715581  18.050323
H           12.554749  14.694379   3.610065
H           10.655225  13.615990  10.830194
H            8.755701  12.537602  18.050323
H           14.368814   1.050337   3.610065
H           12.469290  -0.028052  10.830194
H           10.569767  -1.106440  18.050323
H           15.987381   7.872358   3.610065
H           14.087858   6.793969  10.830194
H           12.188334   5.715581  18.050323
H           17.605949  14.694379   3.610065
H           15.706425  13.615990  10.830194
H           13.806901  12.537602  18.050323
H            0.569953   0.289717   4.454820
H           -1.329570  -0.788671  11.674949
H           -3.229094  -1.867059  18.895078
H            2.188521   7.111738   4.454820
H            0.288997   6.033350  11.674949
H           -1.610527   4.954962  18.895078
H            3.807088  13.933759   4.454820
H            1.907564  12.855371  11.674949
H            0.008041  11.776983  18.895078
H            5.621153   0.289717   4.454820
H            3.721630  -0.788671  11.674949
H            1.822106  -1.867059  18.895078
H            7.239721   7.111738   4.454820
H            5.340197   6.033350  11.674949
H            3.440673   4.954962  18.895078
H            8.858288  13.933759   4.454820
H            6.958764  12.855371  11.674949
H            5.059241  11.776983  18.895078
H           10.672353   0.289717   4.454820
H            8.772830  -0.788671  11.674949
H            6.873306  -1.867059  18.895078
H           12.290921   7.111738   4.454820
H           10.391397   6.033350  11.674949
H            8.491873   4.954962  18.895078
H           13.909488  13.933759   4.454820
H           12.009964  12.855371  11.674949
H           10.110441  11.776983  18.895078
H            1.188945   0.152875   0.483749
H           -0.710579  -0.925514   7.703878
H           -2.610103  -2.003902  14.924007
H            2.807512   6.974896   0.483749
H            0.907988   5.896507   7.703878
H           -0.991535   4.818119  14.924007
H            4.426079  13.796917   0.483749
H            2.526556  12.718528   7.703878
H            0.627032  11.640140  14.924007
H            6.240145   0.152875   0.483749
H            4.340621  -0.925514   7.703878
H            2.441097  -2.003902  14.924007
H            7.858712   6.974896   0.483749
H            5.959188   5.896507   7.703878
H            4.059665   4.818119  14.924007
H            9.477279  13.796917   0.483749
H            7.577756  12.718528   7.703878
H            5.678232  11.640140  14.924007
H           11.291345   0.152875   0.483749
H            9.391821  -0.925514   7.703878
H            7.492297  -2.003902  14.924007
H           12.909912   6.974896   0.483749
H           11.010388   5.896507   7.703878
H            9.110865   4.818119  14.924007
H           14.528479  13.796917   0.483749
H           12.628956  12.718528   7.703878
H           10.729432  11.640140  14.924007
H            2.153253   1.184313   1.205762
H            0.253729   0.105925   8.425891
H           -1.645794  -0.972463  15.646020
H            3.771820   8.006334   1.205762
H            1.872297   6.927946   8.425891
H           -0.027227   5.849558  15.646020
H            5.390388  14.828355   1.205762
H            3.490864  13.749967   8.425891
H            1.591341  12.671579  15.646020
H            7.204453   1.184313   1.205762
H            5.304929   0.105925   8.425891
H            3.405406  -0.972463  15.646020
H            8.823020   8.006334   1.205762
H            6.923497   6.927946   8.425891
H            5.023973   5.849558  15.646020
H           10.441588  14.828355   1.205762
H            8.542064  13.749967   8.425891
H            6.642541  12.671579  15.646020
H           12.255653   1.184313   1.205762
H           10.356129   0.105925   8.425891
H            8.456606  -0.972463  15.646020
H           13.874220   8.006334   1.205762
H           11.974697   6.927946   8.425891
H           10.075173   5.849558  15.646020
H           15.492788  14.828355   1.205762
H           13.593264  13.749967   8.425891
H           11.693741  12.671579  15.646020
H            3.907693   3.892327   1.025258
H            2.008169   2.813939   8.245387
H            0.108645   1.735551  15.465516
H            5.526260  10.714348   1.025258
H            3.626736   9.635960   8.245387
H            1.727213   8.557572  15.465516
H            7.144827  17.536369   1.025258
H            5.245304  16.457981   8.245387
H            3.345780  15.379593  15.465516
H            8.958893   3.892327   1.025258
H            7.059369   2.813939   8.245387
H            5.159845   1.735551  15.465516
H           10.577460  10.714348   1.025258
H            8.677936   9.635960   8.245387
H            6.778413   8.557572  15.465516
H           12.196027  17.536369   1.025258
H           10.296504  16.457981   8.245387
H            8.396980  15.379593  15.465516
H           14.010093   3.892327   1.025258
H           12.110569   2.813939   8.245387
H           10.211045   1.735551  15.465516
H           15.628660  10.714348   1.025258
H           13.729136   9.635960   8.245387
H           11.829613   8.557572  15.465516
H           17.247227  17.536369   1.025258
H           15.347704  16.457981   8.245387
H           13.448180  15.379593  15.465516
H            3.754897   3.318294   2.584806
H            1.855374   2.239906   9.804935
H           -0.044150   1.161518  17.025064
H            5.373465  10.140315   2.584806
H            3.473941   9.061927   9.804935
H            1.574418   7.983539  17.025064
H            6.992032  16.962336   2.584806
H            5.092509  15.883948   9.804935
H            3.192985  14.805560  17.025064
H            8.806097   3.318294   2.584806
H            6.906574   2.239906   9.804935
H            5.007050   1.161518  17.025064
H           10.424665  10.140315   2.584806
H            8.525141   9.061927   9.804935
H            6.625618   7.983539  17.025064
H           12.043232  16.962336   2.584806
H           10.143709  15.883948   9.804935
H            8.244185  14.805560  17.025064
H           13.857297   3.318294   2.584806
H           11.957774   2.239906   9.804935
H           10.058250   1.161518  17.025064
H           15.475865  10.140315   2.584806
H           13.576341   9.061927   9.804935
H           11.676818   7.983539  17.025064
H           17.094432  16.962336   2.584806
H           15.194909  15.883948   9.804935
H           13.295385  14.805560  17.025064
H            5.417505   5.718661   2.043297
H            3.517981   4.640272   9.263426
H            1.618458   3.561884  16.483555
H            7.036072  12.540682   2.043297
H            5.136549  11.462293   9.263426
H            3.237025  10.383905  16.483555
H            8.654640  19.362702   2.043297
H            6.755116  18.284314   9.263426
H            4.855593  17.205926  16.483555
H           10.468705   5.718661   2.043297
H            8.569181   4.640272   9.263426
H            6.669658   3.561884  16.483555
H           12.087272  12.540682   2.043297
H           10.187749  11.462293   9.263426
H            8.288225  10.383905  16.483555
H           13.705840  19.362702   2.043297
H           11.806316  18.284314   9.263426
H            9.906793  17.205926  16.483555
H           15.519905   5.718661   2.043297
H           13.620381   4.640272   9.263426
H           11.720858   3.561884  16.483555
H           17.138472  12.540682   2.043297
H           15.238949  11.462293   9.263426
H           13.339425  10.383905  16.483555
H           18.757040  19.362702   2.043297
H           16.857516  18.284314   9.263426
H           14.957993  17.205926  16.483555
H            0.503830   4.693296   3.610065
H           -1.395694   3.614908  10.830194
H           -3.295218   2.536519  18.050323
H            2.122397  11.515317   3.610065
H            0.222874  10.436929  10.830194
H           -1.676650   9.358540  18.050323
H            3.740965  18.337338   3.610065
H            1.841441  17.258949  10.830194
H           -0.058083  16.180561  18.050323
H            5.555030   4.693296   3.610065
H            3.655506   3.614908  10.830194
H            1.755982   2.536519  18.050323
H            7.173597  11.515317   3.610065
H            5.274074  10.436929  10.830194
H            3.374550   9.358540  18.050323
H            8.792165  18.337338   3.610065
H            6.892641  17.258949  10.830194
H            4.993117  16.180561  18.050323
H           10.606230   4.693296   3.610065
H            8.706706   3.614908  10.830194
H            6.807182   2.536519  18.050323
H           12.224797  11.515317   3.610065
H           10.325274  10.436929  10.830194
H            8.425750   9.358540  18.050323
H           13.843365  18.337338   3.610065
H           11.943841  17.258949  10.830194
H           10.044317  16.180561  18.050323
H            4.200290   5.453915   2.765309
H            2.300767   4.375527   9.985438
H            0.401243   3.297139  17.205568
H            5.818858  12.275936   2.765309
H            3.919334  11.197548   9.985438
H            2.019810  10.119160  17.205568
H            7.437425  19.097957   2.765309
H            5.537902  18.019569   9.985438
H            3.638378  16.941181  17.205568
H            9.251490   5.453915   2.765309
H            7.351967   4.375527   9.985438
H            5.452443   3.297139  17.205568
H           10.870058  12.275936   2.765309
H            8.970534  11.197548   9.985438
H            7.071010  10.119160  17.205568
H           12.488625  19.097957   2.765309
H           10.589102  18.019569   9.985438
H            8.689578  16.941181  17.205568
H           14.302690   5.453915   2.765309
H           12.403167   4.375527   9.985438
H           10.503643   3.297139  17.205568
H           15.921258  12.275936   2.765309
H           14.021734  11.197548   9.985438
H           12.122210  10.119160  17.205568
H           17.539825  19.097957   2.765309
H           15.640302  18.019569   9.985438
H           13.740778  16.941181  17.205568
C            4.570609   3.997853   6.116316
C            2.671085   2.919465  13.336445
C            0.771561   1.841077  20.556574
C            6.189176  10.819874   6.116316
C            4.289652   9.741486  13.336445
C            2.390129   8.663098  20.556574
C            7.807743  17.641895   6.116316
C            5.908220  16.563507  13.336445
C            4.008696  15.485118  20.556574
C            9.621809   3.997853   6.116316
C            7.722285   2.919465  13.336445
C            5.822761   1.841077  20.556574
C           11.240376  10.819874   6.116316
C            9.340852   9.741486  13.336445
C            7.441329   8.663098  20.556574
C           12.858943  17.641895   6.116316
C           10.959420  16.563507  13.336445
C            9.059896  15.485118  20.556574
C           14.673009   3.997853   6.116316
C           12.773485   2.919465  13.336445
C           10.873961   1.841077  20.556574
C           16.291576  10.819874   6.116316
C           14.392052   9.741486  13.336445
C           12.492529   8.663098  20.556574
C           17.910143  17.641895   6.116316
C           16.010620  16.563507  13.336445
C           14.111096  15.485118  20.556574
C            0.381439   1.969170   5.233077
C           -1.518085   0.890782  12.453206
C           -3.417608  -0.187606  19.673335
C            2.000007   8.791191   5.233077
C            0.100483   7.712803  12.453206
C           -1.799041   6.634415  19.673335
C            3.618574  15.613212   5.233077
C            1.719050  14.534824  12.453206
C           -0.180473  13.456435  19.673335
C            5.432639   1.969170   5.233077
C            3.533115   0.890782  12.453206
C            1.633592  -0.187606  19.673335
C            7.051207   8.791191   5.233077
C            5.151683   7.712803  12.453206
C            3.252159   6.634415  19.673335
C            8.669774  15.613212   5.233077
C            6.770250  14.534824  12.453206
C            4.870727  13.456435  19.673335
C           10.483839   1.969170   5.233077
C            8.584315   0.890782  12.453206
C            6.684792  -0.187606  19.673335
C           12.102407   8.791191   5.233077
C           10.202883   7.712803  12.453206
C            8.303359   6.634415  19.673335
C           13.720974  15.613212   5.233077
C           11.821450  14.534824  12.453206
C            9.921927  13.456435  19.673335
C           -0.212954   0.728911   4.588248
C           -2.112478  -0.349478  11.808377
C           -4.012002  -1.427866  19.028506
C            1.405613   7.550932   4.588248
C           -0.493911   6.472543  11.808377
C           -2.393434   5.394155  19.028506
C            3.024181  14.372953   4.588248
C            1.124657  13.294564  11.808377
C           -0.774867  12.216176  19.028506
C            4.838246   0.728911   4.588248
C            2.938722  -0.349478  11.808377
C            1.039198  -1.427866  19.028506
C            6.456813   7.550932   4.588248
C            4.557289   6.472543  11.808377
C            2.657766   5.394155  19.028506
C            8.075381  14.372953   4.588248
C            6.175857  13.294564  11.808377
C            4.276333  12.216176  19.028506
C            9.889446   0.728911   4.588248
C            7.989922  -0.349478  11.808377
C            6.090398  -1.427866  19.028506
C           11.508013   7.550932   4.588248
C            9.608489   6.472543  11.808377
C            7.708966   5.394155  19.028506
C           13.126581  14.372953   4.588248
C           11.227057  13.294564  11.808377
C            9.327533  12.216176  19.028506
C            0.199635   1.745779   1.103813
C           -1.699888   0.667391   8.323942
C           -3.599412  -0.410997  15.544071
C            1.818203   8.567800   1.103813
C           -0.081321   7.489412   8.323942
C           -1.980845   6.411024  15.544071
C            3.436770  15.389821   1.103813
C            1.537246  14.311433   8.323942
C           -0.362277  13.233045  15.544071
C            5.250835   1.745779   1.103813
C            3.351312   0.667391   8.323942
C            1.451788  -0.410997  15.544071
C            6.869403   8.567800   1.103813
C            4.969879   7.489412   8.323942
C            3.070355   6.411024  15.544071
C            8.487970  15.389821   1.103813
C            6.588446  14.311433   8.323942
C            4.688923  13.233045  15.544071
C           10.302035   1.745779   1.103813
C            8.402512   0.667391   8.323942
C            6.502988  -0.410997  15.544071
C           11.920603   8.567800   1.103813
C           10.021079   7.489412   8.323942
C            8.121555   6.411024  15.544071
C           13.539170  15.389821   1.103813
C           11.639646  14.311433   8.323942
C            9.740123  13.233045  15.544071
C            4.388805   3.774462   1.987052
C            2.489281   2.696074   9.207181
C            0.589757   1.617686  16.427310
C            6.007372  10.596483   1.987052
C            4.107848   9.518095   9.207181
C            2.208325   8.439707  16.427310
C            7.625939  17.418504   1.987052
C            5.726416  16.340116   9.207181
C            3.826892  15.261728  16.427310
C            9.440005   3.774462   1.987052
C            7.540481   2.696074   9.207181
C            5.640957   1.617686  16.427310
C           11.058572  10.596483   1.987052
C            9.159048   9.518095   9.207181
C            7.259525   8.439707  16.427310
C           12.677139  17.418504   1.987052
C           10.777616  16.340116   9.207181
C            8.878092  15.261728  16.427310
C           14.491205   3.774462   1.987052
C           12.591681   2.696074   9.207181
C           10.692157   1.617686  16.427310
C           16.109772  10.596483   1.987052
C           14.210248   9.518095   9.207181
C           12.310725   8.439707  16.427310
C           17.728339  17.418504   1.987052
C           15.828816  16.340116   9.207181
C           13.929292  15.261728  16.427310
C            4.983198   5.014722   2.631881
C            3.083674   3.936334   9.852010
C            1.184151   2.857945  17.072140
C            6.601765  11.836743   2.631881
C            4.702242  10.758355   9.852010
C            2.802718   9.679966  17.072140
C            8.220333  18.658764   2.631881
C            6.320809  17.580375   9.852010
C            4.421286  16.501987  17.072140
C           10.034398   5.014722   2.631881
C            8.134874   3.936334   9.852010
C            6.235351   2.857945  17.072140
C           11.652965  11.836743   2.631881
C            9.753442  10.758355   9.852010
C            7.853918   9.679966  17.072140
C           13.271533  18.658764   2.631881
C           11.372009  17.580375   9.852010
C            9.472486  16.501987  17.072140
C           15.085598   5.014722   2.631881
C           13.186074   3.936334   9.852010
C           11.286551   2.857945  17.072140
C           16.704165  11.836743   2.631881
C           14.804642  10.758355   9.852010
C           12.905118   9.679966  17.072140
C           18.322733  18.658764   2.631881
C           16.423209  17.580375   9.852010
C           14.523686  16.501987  17.072140
